2
MD Step 0
Li  0.00000000 0.00000000 0.00000000
F  0.00000000 0.00000000 1.50000000
2
MD Step 1
Li  0.00208253 0.00208334 0.00213428
F  0.00125891 0.00125892 1.50123993
2
MD Step 2
Li  0.00416500 0.00416663 0.00437074
F  0.00251784 0.00251785 1.50244254
2
MD Step 3
Li  0.00624737 0.00624981 0.00670775
F  0.00377681 0.00377683 1.50360841
2
MD Step 4
Li  0.00832957 0.00833282 0.00914349
F  0.00503584 0.00503586 1.50473821
2
MD Step 5
Li  0.01041157 0.01041563 0.01167589
F  0.00629494 0.00629497 1.50583269
2
MD Step 6
Li  0.01249330 0.01249818 0.01430269
F  0.00755414 0.00755418 1.50689269
2
MD Step 7
Li  0.01457474 0.01458043 0.01702135
F  0.00881345 0.00881349 1.50791912
2
MD Step 8
Li  0.01665584 0.01666234 0.01982917
F  0.01007288 0.01007293 1.50891298
2
MD Step 9
Li  0.01873657 0.01874387 0.02272317
F  0.01133245 0.01133251 1.50987535
2
MD Step 10
Li  0.02081688 0.02082500 0.02570018
F  0.01259217 0.01259223 1.51080740
2
MD Step 11
Li  0.02289677 0.02290569 0.02875680
F  0.01385204 0.01385212 1.51171036
2
MD Step 12
Li  0.02497619 0.02498593 0.03188939
F  0.01511209 0.01511217 1.51258557
2
MD Step 13
Li  0.02705515 0.02706569 0.03509411
F  0.01637230 0.01637239 1.51343443
2
MD Step 14
Li  0.02913362 0.02914497 0.03836689
F  0.01763269 0.01763279 1.51425841
2
MD Step 15
Li  0.03121160 0.03122376 0.04170345
F  0.01889327 0.01889337 1.51505910
2
MD Step 16
Li  0.03328909 0.03330206 0.04509928
F  0.02015402 0.02015413 1.51583813
2
MD Step 17
Li  0.03536610 0.03537988 0.04854969
F  0.02141494 0.02141506 1.51659722
2
MD Step 18
Li  0.03744265 0.03745724 0.05204976
F  0.02267603 0.02267616 1.51733817
2
MD Step 19
Li  0.03951876 0.03953415 0.05559437
F  0.02393729 0.02393743 1.51806285
2
MD Step 20
Li  0.04159446 0.04161066 0.05917823
F  0.02519869 0.02519884 1.51877319
2
MD Step 21
Li  0.04366979 0.04368679 0.06279582
F  0.02646023 0.02646039 1.51947120
2
MD Step 22
Li  0.04574479 0.04576260 0.06644150
F  0.02772189 0.02772206 1.52015895
2
MD Step 23
Li  0.04781952 0.04783813 0.07010940
F  0.02898365 0.02898383 1.52083858
2
MD Step 24
Li  0.04989405 0.04991346 0.07379354
F  0.03024549 0.03024567 1.52151228
2
MD Step 25
Li  0.05196844 0.05198866 0.07748778
F  0.03150737 0.03150756 1.52218229
2
MD Step 26
Li  0.05404278 0.05406381 0.08118584
F  0.03276927 0.03276947 1.52285091
2
MD Step 27
Li  0.05611716 0.05613900 0.08488134
F  0.03403115 0.03403137 1.52352046
2
MD Step 28
Li  0.05819169 0.05821432 0.08856777
F  0.03529299 0.03529321 1.52419332
2
MD Step 29
Li  0.06026646 0.06028990 0.09223859
F  0.03655473 0.03655496 1.52487188
2
MD Step 30
Li  0.06234159 0.06236584 0.09588715
F  0.03781634 0.03781658 1.52555858
2
MD Step 31
Li  0.06441722 0.06444228 0.09950678
F  0.03907777 0.03907802 1.52625585
2
MD Step 32
Li  0.06649348 0.06651934 0.10309080
F  0.04033897 0.04033923 1.52696613
2
MD Step 33
Li  0.06857051 0.06859718 0.10663253
F  0.04159989 0.04160016 1.52769186
2
MD Step 34
Li  0.07064846 0.07067593 0.11012532
F  0.04286048 0.04286075 1.52843547
2
MD Step 35
Li  0.07272749 0.07275577 0.11356259
F  0.04412066 0.04412094 1.52919936
2
MD Step 36
Li  0.07480775 0.07483685 0.11693784
F  0.04538040 0.04538069 1.52998591
2
MD Step 37
Li  0.07688943 0.07691934 0.12024468
F  0.04663962 0.04663991 1.53079745
2
MD Step 38
Li  0.07897270 0.07900342 0.12347690
F  0.04789826 0.04789856 1.53163626
2
MD Step 39
Li  0.08105773 0.08108926 0.12662844
F  0.04915626 0.04915656 1.53250454
2
MD Step 40
Li  0.08314470 0.08317705 0.12969347
F  0.05041354 0.05041385 1.53340444
2
MD Step 41
Li  0.08523380 0.08526697 0.13266637
F  0.05167005 0.05167036 1.53433798
2
MD Step 42
Li  0.08732521 0.08735921 0.13554184
F  0.05292572 0.05292603 1.53530713
2
MD Step 43
Li  0.08941912 0.08945394 0.13831484
F  0.05418047 0.05418079 1.53631371
2
MD Step 44
Li  0.09151571 0.09155135 0.14098068
F  0.05543424 0.05543456 1.53735944
2
MD Step 45
Li  0.09361515 0.09365162 0.14353505
F  0.05668697 0.05668729 1.53844590
2
MD Step 46
Li  0.09571762 0.09575492 0.14597400
F  0.05793860 0.05793892 1.53957452
