2
MD Step 0
Li  0.00000000 0.00000000 0.00000000
H  0.00000000 0.00000000 3.00000000
2
MD Step 1
Li  0.00152111 0.00152095 0.00265604
H  0.00399347 0.00399337 2.99616980
2
MD Step 2
Li  0.00304409 0.00304378 0.00758728
H  0.00797400 0.00797378 2.97665724
2
MD Step 3
Li  0.00457089 0.00457042 0.01481263
H  0.01192827 0.01192795 2.94133196
2
MD Step 4
Li  0.00610353 0.00610291 0.02436219
H  0.01584225 0.01584182 2.88998647
