6
MD Step 0
C  -0.38329520 0.73226544 0.00000000
H  0.14986855 -0.19543948 0.00000000
H  -1.45329520 0.73226544 0.00000000
C  0.29197911 1.90724273 0.00000000
H  -0.24118464 2.83494765 0.00000000
H  1.36197911 1.90724273 0.00000000
6
MD Step 1
C  -0.33816996 -0.58800889 -0.00055821
H  0.19887474 -1.51254748 0.00332884
H  -1.40492268 -0.58446993 0.00333251
C  0.33705397 0.58689315 -0.00055795
H  -0.19222189 1.51919936 0.00333019
H  1.41158079 0.59112604 0.00332148
6
MD Step 2
C  -0.33864937 -0.58845463 -0.00111848
H  0.20227507 -1.51126296 0.00665693
H  -1.40349106 -0.58207197 0.00668446
C  0.33642546 0.58622514 -0.00111716
H  -0.18893398 1.52453853 0.00665470
H  1.41667559 0.59538856 0.00666951
6
MD Step 3
C  -0.33907379 -0.58882929 -0.00168205
H  0.20572463 -1.51131216 0.00998941
H  -1.40336181 -0.58028824 0.01007183
C  0.33575777 0.58549009 -0.00167956
H  -0.18562642 1.53115567 0.00998322
H  1.42281550 0.60027310 0.01005114
6
MD Step 4
C  -0.33944340 -0.58913911 -0.00225042
H  0.20920692 -1.51264074 0.01333570
H  -1.40452165 -0.57911020 0.01350402
C  0.33505811 0.58469626 -0.00224661
H  -0.18225298 1.53897015 0.01332483
H  1.42987326 0.60577285 0.01347382
6
MD Step 5
C  -0.33976015 -0.58939274 -0.00282497
H  0.21269277 -1.51517045 0.01670454
H  -1.40692509 -0.57852751 0.01698960
C  0.33433461 0.58385444 -0.00281960
H  -0.17876000 1.54787917 0.01668784
H  1.43770542 0.61187684 0.01694364
6
MD Step 6
C  -0.34002774 -0.58960097 -0.00340687
H  0.21614193 -1.51880234 0.02010352
H  -1.41049632 -0.57852829 0.02053629
C  0.33359604 0.58297757 -0.00339965
H  -0.17508901 1.55776149 0.02007941
H  1.44615751 0.61856983 0.02046558
6
MD Step 7
C  -0.34025149 -0.58977631 -0.00399707
H  0.21950514 -1.52342075 0.02353892
H  -1.41513251 -0.57909923 0.02415071
C  0.33285161 0.58208032 -0.00398771
H  -0.17117945 1.56848159 0.02350538
H  1.45506896 0.62583230 0.02404347
6
MD Step 8
C  -0.34043812 -0.58993251 -0.00459629
H  0.22272645 -1.52889735 0.02701567
H  -1.42070812 -0.58022566 0.02783821
C  0.33211075 0.58117867 -0.00458452
H  -0.16697118 1.57989398 0.02697029
H  1.46427761 0.63364061 0.02768005
6
MD Step 9
C  -0.34059548 -0.59008422 -0.00520500
H  0.22574567 -1.53509535 0.03053740
H  -1.42707980 -0.58189155 0.03160277
C  0.33138293 0.58028940 -0.00519069
H  -0.16240673 1.59184742 0.03047746
H  1.47362372 0.64196730 0.03137706
6
MD Step 10
C  -0.34073232 -0.59024649 -0.00582343
H  0.22850068 -1.54187339 0.03410653
H  -1.43409162 -0.58407945 0.03544696
C  0.33067749 0.57942969 -0.00580665
H  -0.15743310 1.60418876 0.03402906
H  1.48295312 0.65078150 0.03513534
6
MD Step 11
C  -0.34085792 -0.59043444 -0.00645163
H  0.23092961 -1.54908906 0.03772440
H  -1.44158023 -0.58677042 0.03937202
C  0.33000351 0.57861670 -0.00643269
H  -0.15200316 1.61676632 0.03762632
H  1.49211979 0.66004937 0.03895497
6
MD Step 12
C  -0.34098183 -0.59066289 -0.00708940
H  0.23297269 -1.55660203 0.04139139
H  -1.44937963 -0.58994406 0.04337796
C  0.32936967 0.57786715 -0.00706900
H  -0.14607657 1.62943276 0.04126964
H  1.50098767 0.66973465 0.04283545
6
MD Step 13
C  -0.34111357 -0.59094608 -0.00773643
H  0.23457371 -1.56427649 0.04510715
H  -1.45732543 -0.59357848 0.04746374
C  0.32878410 0.57719706 -0.00771571
H  -0.13962037 1.64204737 0.04495881
H  1.50943193 0.67979913 0.04677584
6
MD Step 14
C  -0.34126242 -0.59129738 -0.00839225
H  0.23568127 -1.57198323 0.04887070
H  -1.46525845 -0.59765037 0.05162745
C  0.32825439 0.57662145 -0.00837288
H  -0.13260919 1.65447773 0.04869314
H  1.51733975 0.69020322 0.05077490
6
MD Step 15
C  -0.34143713 -0.59172911 -0.00905628
H  0.23624960 -1.57960110 0.05268061
H  -1.47302751 -0.60213508 0.05586650
C  0.32778738 0.57615409 -0.00904054
H  -0.12502520 1.66660105 0.05247163
H  1.52461060 0.70090639 0.05483124
6
MD Step 16
C  -0.34164584 -0.59225233 -0.00972789
H  0.23623916 -1.58701811 0.05653514
H  -1.48049167 -0.60700676 0.06017780
C  0.32738922 0.57580735 -0.00971871
H  -0.11685788 1.67830493 0.05629310
H  1.53115630 0.71186759 0.05894344
6
MD Step 17
C  -0.34189586 -0.59287673 -0.01040636
H  0.23561698 -1.59413215 0.06043233
H  -1.48752169 -0.61223851 0.06455791
C  0.32706523 0.57559207 -0.01040743
H  -0.10810362 1.68948786 0.06015630
H  1.53690080 0.72304569 0.06311016
6
MD Step 18
C  -0.34219362 -0.59361050 -0.01109096
H  0.23435689 -1.60085144 0.06437008
H  -1.49400107 -0.61780250 0.06900325
C  0.32681989 0.57551742 -0.01110677
H  -0.09876531 1.70005945 0.06406001
H  1.54177979 0.73439979 0.06733019
6
MD Step 19
C  -0.34254462 -0.59446029 -0.01178091
H  0.23243952 -1.60709474 0.06834625
H  -1.49982653 -0.62367016 0.07351014
C  0.32665685 0.57559088 -0.01181682
H  -0.08885175 1.70994043 0.06800315
H  1.54574026 0.74588949 0.07160258
6
MD Step 20
C  -0.34295333 -0.59543114 -0.01247544
H  0.22985233 -1.61279144 0.07235866
H  -1.50490829 -0.62981229 0.07807494
C  0.32657885 0.57581816 -0.01253775
H  -0.07837720 1.71906255 0.07198477
H  1.54874000 0.75747515 0.07592667
6
MD Step 21
C  -0.34342326 -0.59652644 -0.01317376
H  0.22658949 -1.61788157 0.07640514
H  -1.50917002 -0.63619922 0.08269416
C  0.32658774 0.57620320 -0.01326978
H  -0.06736085 1.72736835 0.07600412
H  1.55074711 0.76911810 0.08030217
6
MD Step 22
C  -0.34395688 -0.59774799 -0.01387509
H  0.22265187 -1.62231576 0.08048356
H  -1.51254872 -0.64280094 0.08736445
C  0.32668451 0.57674821 -0.01401321
H  -0.05582636 1.73481091 0.08006072
H  1.55173956 0.78078079 0.08472922
6
MD Step 23
C  -0.34455573 -0.59909590 -0.01457864
H  0.21804690 -1.62605521 0.08459183
H  -1.51499447 -0.64958717 0.09208276
C  0.32686923 0.57745364 -0.01476842
H  -0.04380144 1.74135369 0.08415432
H  1.55170484 0.79242695 0.08920841
6
MD Step 24
C  -0.34522039 -0.60056871 -0.01528365
H  0.21278858 -1.62907170 0.08872795
H  -1.51647022 -0.65652748 0.09684630
C  0.32714114 0.57831824 -0.01553588
H  -0.03131751 1.74697022 0.08828498
H  1.55063960 0.80402170 0.09374090
6
MD Step 25
C  -0.34595056 -0.60216336 -0.01598935
H  0.20689747 -1.63134768 0.09289002
H  -1.51695161 -0.66359135 0.10165266
C  0.32749859 0.57933909 -0.01631616
H  -0.01840939 1.75164401 0.09245306
H  1.54854954 0.81553165 0.09832844
6
MD Step 26
C  -0.34674506 -0.60387523 -0.01669503
H  0.20040067 -1.63287638 0.09707636
H  -1.51642684 -0.67074829 0.10649987
C  0.32793912 0.58051170 -0.01710994
H  -0.00511507 1.75536844 0.09665931
H  1.54544917 0.82692499 0.10297345
6
MD Step 27
C  -0.34760192 -0.60569820 -0.01740000
H  0.19333198 -1.63366199 0.10128552
H  -1.51489665 -0.67796784 0.11138651
C  0.32845948 0.58182997 -0.01791803
H  0.00852451 1.75814670 0.10090488
H  1.54136181 0.83817161 0.10767910
6
MD Step 28
C  -0.34851840 -0.60762464 -0.01810364
H  0.18573189 -1.63371991 0.10551643
H  -1.51237435 -0.68521970 0.11631177
C  0.32905560 0.58328634 -0.01874136
H  0.02246563 1.75999177 0.10519140
H  1.53631956 0.84924312 0.11244942
6
MD Step 29
C  -0.34949105 -0.60964554 -0.01880541
H  0.17764777 -1.63307706 0.10976858
H  -1.50888598 -0.69247378 0.12127565
C  0.32972271 0.58487182 -0.01958104
H  0.03666190 1.76092652 0.10952111
H  1.53036336 0.86011301 0.11728941
6
MD Step 30
C  -0.35051573 -0.61175046 -0.01950490
H  0.16913392 -1.63177207 0.11404209
H  -1.50447047 -0.69970024 0.12627912
C  0.33045530 0.58657604 -0.02043834
H  0.05106447 1.76098374 0.11389693
H  1.52354299 0.87075669 0.12220517
6
MD Step 31
C  -0.35158765 -0.61392768 -0.02020182
H  0.16025164 -1.62985558 0.11833800
H  -1.49917989 -0.70686963 0.13132431
C  0.33124719 0.58838734 -0.02131472
H  0.06562214 1.76020622 0.11832258
H  1.51591715 0.88115161 0.12720402
6
MD Step 32
C  -0.35270142 -0.61616419 -0.02089609
H  0.15106923 -1.62739032 0.12265839
H  -1.49307969 -0.71395295 0.13641473
C  0.33209153 0.59029283 -0.02221188
H  0.08028157 1.75864677 0.12280278
H  1.50755346 0.89127738 0.13229475
6
MD Step 33
C  -0.35385104 -0.61844583 -0.02158784
H  0.14166181 -1.62445110 0.12700664
H  -1.48624881 -0.72092179 0.14155556
C  0.33298089 0.59227848 -0.02313176
H  0.09498749 1.75636820 0.12734334
H  1.49852841 0.90111587 0.13748771
6
MD Step 34
C  -0.35502995 -0.62075733 -0.02227745
H  0.13211113 -1.62112454 0.13138761
H  -1.47877978 -0.72774843 0.14675391
C  0.33390722 0.59432922 -0.02407657
H  0.10968301 1.75344319 0.13195138
H  1.48892718 0.91065131 0.14279506
6
MD Step 35
C  -0.35623105 -0.62308249 -0.02296562
H  0.12250500 -1.61750844 0.13580775
H  -1.47077854 -0.73440606 0.15201905
C  0.33486198 0.59642899 -0.02504887
H  0.12430989 1.74995396 0.13663542
H  1.47884339 0.91987042 0.14823095
6
MD Step 36
C  -0.35744669 -0.62540428 -0.02365337
H  0.11293659 -1.61371073 0.14027525
H  -1.46236400 -0.74086889 0.15736274
C  0.33583613 0.59856091 -0.02605150
H  0.13880901 1.74599174 0.14140557
H  1.46837859 0.92876242 0.15381169
6
MD Step 37
C  -0.35866872 -0.62770508 -0.02434206
H  0.10350340 -1.60984792 0.14480002
H  -1.45366719 -0.74711235 0.16279936
C  0.33682019 0.60070741 -0.02708770
H  0.15312075 1.74165601 0.14627361
H  1.45764157 0.93731910 0.15955591
6
MD Step 38
C  -0.35988852 -0.62996687 -0.02503339
H  0.09430584 -1.60604283 0.14939358
H  -1.44482989 -0.75311323 0.16834606
C  0.33780436 0.60285038 -0.02816107
H  0.16718558 1.73705338 0.15125305
H  1.44674741 0.94553479 0.16548465
6
MD Step 39
C  -0.36109704 -0.63217157 -0.02572940
H  0.08544553 -1.60242178 0.15406878
H  -1.43600267 -0.75884988 0.17402281
C  0.33877858 0.60497137 -0.02927557
H  0.18094456 1.73229613 0.15635913
H  1.43581618 0.95340616 0.17162141
6
MD Step 40
C  -0.36228494 -0.63430147 -0.02643241
H  0.07702356 -1.59911179 0.15883954
H  -1.42734311 -0.76430229 0.17985253
C  0.33973258 0.60705177 -0.03043563
H  0.19434074 1.72750171 0.16160918
H  1.42497229 0.96093343 0.17799267
6
MD Step 41
C  -0.36344263 -0.63633944 -0.02714494
H  0.06913764 -1.59623526 0.16371994
H  -1.41901085 -0.76945210 0.18586028
C  0.34065614 0.60907318 -0.03164594
H  0.20731848 1.72278819 0.16702169
H  1.41434083 0.96811768 0.18462682
6
MD Step 42
C  -0.36456048 -0.63826944 -0.02786960
H  0.06187996 -1.59390608 0.16872359
H  -1.41116422 -0.77428249 0.19207293
C  0.34153921 0.61101769 -0.03291150
H  0.21982446 1.71827274 0.17261631
H  1.40404613 0.97496125 0.19155418
6
MD Step 43
C  -0.36562899 -0.64007696 -0.02860894
H  0.05533462 -1.59222492 0.17386260
H  -1.40395552 -0.77877813 0.19851837
C  0.34237212 0.61286820 -0.03423747
H  0.23180819 1.71406865 0.17841341
H  1.39420914 0.98146704 0.19880663
6
MD Step 44
C  -0.36663904 -0.64174944 -0.02936526
H  0.04957520 -1.59127475 0.17914664
H  -1.39752589 -0.78292483 0.20522449
C  0.34314575 0.61460878 -0.03562917
H  0.24322244 1.71028230 0.18443349
H  1.38494472 0.98763778 0.20641698
6
MD Step 45
C  -0.36758219 -0.64327669 -0.03014049
H  0.04466261 -1.59111682 0.18458182
H  -1.39200007 -0.78670930 0.21221796
C  0.34385176 0.61622503 -0.03709188
H  0.25402360 1.70701005 0.19069655
H  1.37635872 0.99347503 0.21441828
6
MD Step 46
C  -0.36845090 -0.64465117 -0.03093593
H  0.04064340 -1.59178743 0.19016972
H  -1.38748134 -0.79011877 0.21952288
C  0.34448285 0.61770444 -0.03863072
H  0.26417181 1.70433521 0.19722124
H  1.36854521 0.99897828 0.22284287
6
MD Step 47
C  -0.36923889 -0.64586820 -0.03175207
H  0.03754853 -1.59329593 0.19590659
H  -1.38404710 -0.79314062 0.22715938
C  0.34503296 0.61903671 -0.04025053
H  0.27363125 1.70232532 0.20402412
H  1.36158372 1.00414402 0.23172152
6
MD Step 48
C  -0.36994131 -0.64692607 -0.03258849
H  0.03539292 -1.59562402 0.20178274
H  -1.38174539 -0.79576206 0.23514218
C  0.34549743 0.62021396 -0.04195566
H  0.28237006 1.70103001 0.21111871
H  1.35553700 1.00896487 0.24108232
6
MD Step 49
C  -0.37055498 -0.64782596 -0.03344367
H  0.03417557 -1.59872644 0.20778232
H  -1.38059279 -0.79796999 0.24347947
C  0.34587319 0.62123098 -0.04374984
H  0.29036035 1.70047935 0.21851478
H  1.35044917 1.01342891 0.25094962
6
MD Step 50
C  -0.37107846 -0.64857178 -0.03431497
H  0.03388033 -1.60253309 0.21388339
H  -1.38057378 -0.79975089 0.25217192
C  0.34615881 0.62208524 -0.04563602
H  0.29757822 1.70068308 0.22621759
H  1.34634449 1.01751933 0.26134313
6
MD Step 51
C  -0.37151208 -0.64916986 -0.03519862
H  0.03447730 -1.60695213 0.22005835
H  -1.38164173 -0.80109095 0.26121220
C  0.34635458 0.62277693 -0.04761626
H  0.30400369 1.70163065 0.23422743
H  1.34322695 1.02121433 0.27227709
6
MD Step 52
C  -0.37185787 -0.64962856 -0.03608975
H  0.03592452 -1.61187410 0.22627465
H  -1.38372137 -0.80197638 0.27058488
C  0.34646242 0.62330881 -0.04969166
H  0.30962069 1.70329209 0.24253930
H  1.34108056 1.02448742 0.28375960
6
MD Step 53
C  -0.37211940 -0.64995784 -0.03698255
H  0.03817002 -1.61717633 0.23249569
H  -1.38671252 -0.80239374 0.28026664
C  0.34648580 0.62368601 -0.05186227
H  0.31441707 1.70561956 0.25114271
H  1.33987038 1.02730799 0.29579221
6
MD Step 54
C  -0.37230152 -0.65016879 -0.03787034
H  0.04115397 -1.62272754 0.23868183
H  -1.39049466 -0.80233053 0.29022697
C  0.34642955 0.62391572 -0.05412713
H  0.31838459 1.70854954 0.26002190
H  1.33954422 1.02964222 0.30836973
6
MD Step 55
C  -0.37241015 -0.65027318 -0.03874581
H  0.04481070 -1.62839228 0.24479148
H  -1.39493201 -0.80177564 0.30042914
C  0.34629971 0.62400687 -0.05648423
H  0.32151897 1.71200547 0.26915604
H  1.34003483 1.03145415 0.32148031
6
MD Step 56
C  -0.37245190 -0.65028306 -0.03960118
H  0.04907078 -1.63403488 0.25078207
H  -1.39987869 -0.80071989 0.31083129
C  0.34610319 0.62396971 -0.05893062
H  0.32381988 1.71590050 0.27851971
H  1.34126248 1.03270686 0.33510570
6
MD Step 57
C  -0.37243387 -0.65021036 -0.04042839
H  0.05386272 -1.63952289 0.25661105
H  -1.40518364 -0.79915643 0.32138771
C  0.34584762 0.62381550 -0.06146248
H  0.32529098 1.72014046 0.28808353
H  1.34313763 1.03336379 0.34922177
6
MD Step 58
C  -0.37236332 -0.65006665 -0.04121927
H  0.05911456 -1.64472986 0.26223663
H  -1.41069506 -0.79708112 0.33205012
C  0.34554103 0.62355605 -0.06407520
H  0.32593983 1.72462654 0.29781475
H  1.34556376 1.03338984 0.36379914
6
MD Step 59
C  -0.37224747 -0.64986286 -0.04196574
H  0.06475515 -1.64953748 0.26761851
H  -1.41626421 -0.79449269 0.34276885
C  0.34519163 0.62320346 -0.06676354
H  0.32577790 1.72925790 0.30767800
H  1.34843988 1.03275247 0.37880395
6
MD Step 60
C  -0.37209330 -0.64960914 -0.04265990
H  0.07071516 -1.65383713 0.27271834
H  -1.42174844 -0.79139285 0.35349393
C  0.34480763 0.62276980 -0.06952170
H  0.32482034 1.73393384 0.31763594
H  1.35166297 1.03142257 0.39419863
6
MD Step 61
C  -0.37190740 -0.64931477 -0.04329417
H  0.07692790 -1.65753088 0.27750011
H  -1.42701356 -0.78778627 0.36417599
C  0.34439703 0.62226691 -0.07234346
H  0.32308580 1.73855565 0.32764990
H  1.35513003 1.02937506 0.40994265
6
MD Step 62
C  -0.37169589 -0.64898805 -0.04386136
H  0.08332996 -1.66053206 0.28193043
H  -1.43193549 -0.78368043 0.37476710
C  0.34396750 0.62170616 -0.07522232
H  0.32059620 1.74302812 0.33768051
H  1.35873983 1.02658941 0.42599338
6
MD Step 63
C  -0.37146430 -0.64863634 -0.04435477
H  0.08986160 -1.66276559 0.28597869
H  -1.43640135 -0.77908550 0.38522131
C  0.34352628 0.62109837 -0.07815153
H  0.31737642 1.74726064 0.34768811
H  1.36239429 1.02304980 0.44230667
6
MD Step 64
C  -0.37121762 -0.64826601 -0.04476820
H  0.09646707 -1.66416793 0.28961721
H  -1.44030999 -0.77401402 0.39549518
C  0.34308009 0.62045372 -0.08112426
H  0.31345394 1.75116799 0.35763329
H  1.36599952 1.01874521 0.45883761
6
MD Step 65
C  -0.37096019 -0.64788249 -0.04509601
H  0.10309488 -1.66468705 0.29282121
H  -1.44357227 -0.76848077 0.40554807
C  0.34263510 0.61978171 -0.08413361
H  0.30885853 1.75467087 0.36747713
H  1.36946662 1.01366930 0.47554094
6
MD Step 66
C  -0.37069583 -0.64749032 -0.04533314
H  0.10969785 -1.66428219 0.29556895
H  -1.44611098 -0.76250241 0.41534247
C  0.34219693 0.61909112 -0.08717271
H  0.30362184 1.75769613 0.37718151
H  1.37271209 1.00782016 0.49237157
6
MD Step 67
C  -0.37042739 -0.64709239 -0.04547494
H  0.11623812 -1.66292169 0.29783982
H  -1.44786216 -0.75609292 0.42484018
C  0.34177087 0.61839026 -0.09023318
H  0.29776031 1.76017522 0.38670228
H  1.37566459 1.00118431 0.50927728
6
MD Step 68
C  -0.37015758 -0.64669154 -0.04551736
H  0.12267698 -1.66058649 0.29961825
H  -1.44877136 -0.74927244 0.43401025
C  0.34136142 0.61768657 -0.09330837
H  0.29130914 1.76204732 0.39600288
H  1.37825167 0.99376854 0.52621360
6
MD Step 69
C  -0.36988859 -0.64628977 -0.04545713
H  0.12898045 -1.65726837 0.30089160
H  -1.44879522 -0.74206243 0.44282538
C  0.34097253 0.61698691 -0.09639172
H  0.28430463 1.76325786 0.40504857
H  1.38040667 0.98558306 0.54313768
6
MD Step 70
C  -0.36962219 -0.64588834 -0.04529158
H  0.13511923 -1.65296981 0.30165042
H  -1.44790106 -0.73448547 0.45126213
C  0.34060769 0.61629756 -0.09947684
H  0.27678390 1.76375834 0.41380593
H  1.38206856 0.97664117 0.56000791
6
MD Step 71
C  -0.36935968 -0.64548773 -0.04501869
H  0.14106887 -1.64770401 0.30188854
H  -1.44606656 -0.72656516 0.45930096
C  0.34026989 0.61562433 -0.10255755
H  0.26878464 1.76350615 0.42224300
H  1.38318178 0.96695892 0.57678414
6
MD Step 72
C  -0.36910235 -0.64508836 -0.04463745
H  0.14680767 -1.64149698 0.30160538
H  -1.44327891 -0.71832818 0.46693178
C  0.33996148 0.61497242 -0.10562958
H  0.26035748 1.76246716 0.43033692
H  1.38369176 0.95656612 0.59343705
6
MD Step 73
C  -0.36885075 -0.64468912 -0.04414715
H  0.15232141 -1.63438401 0.30080123
H  -1.43953607 -0.70979996 0.47414250
C  0.33968469 0.61434682 -0.10868692
H  0.25153955 1.76060988 0.43805770
H  1.38355359 0.94548216 0.60992810
6
MD Step 74
C  -0.36860514 -0.64428819 -0.04354782
H  0.15760190 -1.62641110 0.29948019
H  -1.43484550 -0.70100583 0.48092610
C  0.33944137 0.61375214 -0.11172391
H  0.24236734 1.75790836 0.44537712
H  1.38272740 0.93372747 0.62622130
6
MD Step 75
C  -0.36836550 -0.64388292 -0.04284018
H  0.16264681 -1.61763564 0.29765010
H  -1.42922431 -0.69197159 0.48728025
C  0.33923306 0.61319265 -0.11473513
H  0.23287696 1.75434199 0.45226817
H  1.38117793 0.92132362 0.64228213
6
MD Step 76
C  -0.36813152 -0.64346991 -0.04202568
H  0.16745995 -1.60812674 0.29532263
H  -1.42269934 -0.68272348 0.49320755
C  0.33906098 0.61267233 -0.11771540
H  0.22310407 1.74989542 0.45870513
H  1.37887432 0.90829315 0.65807757
6
MD Step 77
C  -0.36790266 -0.64304495 -0.04110659
H  0.17205166 -1.59796555 0.29251340
H  -1.41530727 -0.67328804 0.49871590
C  0.33892611 0.61219489 -0.12065973
H  0.21308370 1.74455859 0.46466354
H  1.37578984 0.89465924 0.67357611
6
MD Step 78
C  -0.36767814 -0.64260304 -0.04008600
H  0.17643907 -1.58724533 0.28924200
H  -1.40709476 -0.66369199 0.50381888
C  0.33882918 0.61176382 -0.12356335
H  0.20285017 1.73832675 0.47012020
H  1.37190175 0.88044550 0.68874776
6
MD Step 79
C  -0.36745696 -0.64213840 -0.03896787
H  0.18064642 -1.57607156 0.28553204
H  -1.39811861 -0.65396213 0.50853614
C  0.33877068 0.61138237 -0.12642171
H  0.19243697 1.73120060 0.47505327
H  1.36719105 0.86567582 0.70356405
6
MD Step 80
C  -0.36723789 -0.64164454 -0.03775705
H  0.18470516 -1.56456160 0.28141094
H  -1.38844597 -0.64412514 0.51289389
C  0.33875095 0.61105359 -0.12923048
H  0.18187665 1.72318642 0.47944222
H  1.36164229 0.85037410 0.71799796
6
MD Step 81
C  -0.36701944 -0.64111430 -0.03645927
H  0.18865391 -1.55284412 0.27690976
H  -1.37815436 -0.63420745 0.51692524
C  0.33877015 0.61078031 -0.13198556
H  0.17120068 1.71429631 0.48326797
H  1.35524347 0.83456414 0.73202398
6
MD Step 82
C  -0.36679991 -0.64053998 -0.03508120
H  0.19253818 -1.54105801 0.27206268
H  -1.36733163 -0.62423494 0.52067062
C  0.33882829 0.61056515 -0.13468305
H  0.16043932 1.70454842 0.48651294
H  1.34798579 0.81826946 0.74561804
6
MD Step 83
C  -0.36657726 -0.63991352 -0.03363036
H  0.19640968 -1.52935077 0.26690644
H  -1.35607579 -0.61423277 0.52417803
C  0.33892531 0.61041055 -0.13731929
H  0.14962146 1.69396728 0.48916120
H  1.33986353 0.80151317 0.75875750
6
MD Step 84
C  -0.36634915 -0.63922671 -0.03211511
H  0.20032522 -1.51787616 0.26147941
H  -1.34449438 -0.60422505 0.52750322
C  0.33906104 0.61031868 -0.13989085
H  0.13877435 1.68258417 0.49119865
H  1.33087394 0.78431777 0.77142115
6
MD Step 85
C  -0.36611282 -0.63847145 -0.03054454
H  0.20434516 -1.50679137 0.25582060
H  -1.33270372 -0.59423462 0.53070964
C  0.33923529 0.61029149 -0.14239457
H  0.12792346 1.67043748 0.49261319
H  1.32101702 0.76670514 0.78358913
6
MD Step 86
C  -0.36586506 -0.63764009 -0.02892835
H  0.20853130 -1.49625330 0.24996835
H  -1.32082753 -0.58428276 0.53386807
C  0.33944787 0.61033065 -0.14482751
H  0.11709211 1.65757321 0.49339498
H  1.31029545 0.74869635 0.79524289
6
MD Step 87
C  -0.36560216 -0.63672577 -0.02727665
H  0.21294426 -1.48641443 0.24395900
H  -1.30899518 -0.57438899 0.53705607
C  0.33969862 0.61043750 -0.14718704
H  0.10630122 1.64404537 0.49353676
H  1.29871440 0.73031159 0.80636516
6
MD Step 88
C  -0.36531982 -0.63572285 -0.02559984
H  0.21764044 -1.47741829 0.23782540
H  -1.29733929 -0.56457097 0.54035686
C  0.33998749 0.61061304 -0.14947080
H  0.09556890 1.62991649 0.49303421
H  1.28628143 0.71157020 0.81693989
6
MD Step 89
C  -0.36501313 -0.63462725 -0.02390827
H  0.22266880 -1.46939460 0.23159559
H  -1.28599272 -0.55484435 0.54385786
C  0.34031455 0.61085786 -0.15167677
H  0.08491004 1.61525806 0.49188630
H  1.27300630 0.69249044 0.82695220
6
MD Step 90
C  -0.36467662 -0.63343686 -0.02221206
H  0.22806722 -1.46245512 0.22529174
H  -1.27508559 -0.54522339 0.54764870
C  0.34068008 0.61117211 -0.15380329
H  0.07433616 1.60015134 0.49009589
H  1.25890113 0.67309018 0.83638806
6
MD Step 91
C  -0.36430432 -0.63215180 -0.02052080
H  0.23385956 -1.45668933 0.21892913
H  -1.26474109 -0.53572092 0.55181888
C  0.34108461 0.61155539 -0.15584905
H  0.06385477 1.58468756 0.48767025
H  1.24398005 0.65338655 0.84523452
6
MD Step 92
C  -0.36388985 -0.63077461 -0.01884328
H  0.24005326 -1.45216094 0.21251562
H  -1.25507093 -0.52634845 0.55645526
C  0.34152896 0.61200675 -0.15781326
H  0.05346852 1.56896775 0.48462144
H  1.22825874 0.63339543 0.85347989
6
MD Step 93
C  -0.36342667 -0.62931035 -0.01718719
H  0.24663735 -1.44890613 0.20605176
H  -1.24617166 -0.51711715 0.56163894
C  0.34201438 0.61252460 -0.15969561
H  0.04317491 1.55310324 0.48096685
H  1.21175462 0.61313211 0.86111336
6
MD Step 94
C  -0.36290833 -0.62776651 -0.01555896
H  0.25358175 -1.44693292 0.19953121
H  -1.23812075 -0.50803859 0.56744229
C  0.34254252 0.61310667 -0.16149632
H  0.03296577 1.53721548 0.47672962
H  1.19448656 0.59261129 0.86812507
6
MD Step 95
C  -0.36232875 -0.62615287 -0.01396354
H  0.26083746 -1.44622193 0.19294166
H  -1.23097344 -0.49912570 0.57392606
C  0.34311553 0.61374997 -0.16321621
H  0.02282690 1.52143584 0.47193898
H  1.17647491 0.57184749 0.87450604
6
MD Step 96
C  -0.36168256 -0.62448120 -0.01240429
H  0.26833797 -1.44672837 0.18626600
H  -1.22476050 -0.49039374 0.58113691
C  0.34373610 0.61445077 -0.16485669
H  0.01273783 1.50590482 0.46663046
H  1.15774128 0.55085530 0.88024828
6
MD Step 97
C  -0.36096538 -0.62276486 -0.01088291
H  0.27600163 -1.44838512 0.17948372
H  -1.21948688 -0.48186098 0.58910558
C  0.34440746 0.61520467 -0.16641985
H  0.00267157 1.49077090 0.46084573
H  1.13830839 0.52964951 0.88534496
6
MD Step 98
C  -0.36017407 -0.62101842 -0.00939947
H  0.28373449 -1.45110653 0.17257229
H  -1.21513192 -0.47354961 0.59784565
C  0.34513342 0.61600660 -0.16790838
H  -0.00740511 1.47618895 0.45463220
H  1.11820004 0.50824563 0.88979058
6
MD Step 99
C  -0.35930687 -0.61925713 -0.00795244
H  0.29143388 -1.45479258 0.16550848
H  -1.21165056 -0.46548590 0.60735344
C  0.34591828 0.61685100 -0.16932561
H  -0.01753142 1.46231781 0.44804204
H  1.09744067 0.48665981 0.89358134
6
MD Step 100
C  -0.35836353 -0.61749658 -0.00653883
H  0.29899184 -1.45933312 0.15826947
H  -1.20897578 -0.45770057 0.61760853
C  0.34676682 0.61773193 -0.17067542
H  -0.02775162 1.44931741 0.44113076
H  1.07605537 0.46490917 0.89671553
6
MD Step 101
C  -0.35734521 -0.61575225 -0.00515436
H  0.30629861 -1.46461191 0.15083374
H  -1.20702199 -0.45022844 0.62857528
C  0.34768417 0.61864335 -0.17196213
H  -0.03811384 1.43734504 0.43395517
H  1.05406931 0.44301164 0.89919405
6
MD Step 102
C  -0.35625440 -0.61403915 -0.00379360
H  0.31324556 -1.47051022 0.14318162
H  -1.20568892 -0.44310815 0.64020484
C  0.34867562 0.61957938 -0.17319042
H  -0.04866825 1.42655129 0.42657089
H  1.03150754 0.42098598 0.90102094
6
MD Step 103
C  -0.35509476 -0.61237163 -0.00245027
H  0.31972787 -1.47690988 0.13529566
H  -1.20486591 -0.43638150 0.65243769
C  0.34974648 0.62053463 -0.17436512
H  -0.05946489 1.41707553 0.41902946
H  1.00839452 0.39885151 0.90220400
6
MD Step 104
C  -0.35387080 -0.61076304 -0.00111733
H  0.32564648 -1.48369582 0.12716068
H  -1.20443606 -0.43009268 0.66520644
C  0.35090178 0.62150455 -0.17549105
H  -0.07055108 1.40904131 0.41137525
H  0.98475361 0.37662770 0.90275550
6
MD Step 105
C  -0.35258770 -0.60922566 0.00021271
H  0.33090952 -1.49075788 0.11876375
H  -1.20428014 -0.42428758 0.67843846
C  0.35214606 0.62248573 -0.17657291
H  -0.08196846 1.40255202 0.40364258
H  0.96060671 0.35433387 0.90269276
6
MD Step 106
C  -0.35125098 -0.60777056 0.00154773
H  0.33543325 -1.49799218 0.11009392
H  -1.20428001 -0.41901301 0.69205845
C  0.35348306 0.62347624 -0.17761505
H  -0.09375012 1.39768699 0.39585300
H  0.93597378 0.33198857 0.90203887
6
MD Step 107
C  -0.34986628 -0.60640747 0.00289578
H  0.33914247 -1.50530194 0.10114192
H  -1.20432142 -0.41431606 0.70599061
C  0.35491547 0.62447582 -0.17862145
H  -0.10591775 1.39449846 0.38801345
H  0.91087242 0.30960909 0.90082326
6
MD Step 108
C  -0.34843906 -0.60514477 0.00426498
H  0.34197047 -1.51259780 0.09189987
H  -1.20429619 -0.41024359 0.72016037
C  0.35644470 0.62548605 -0.17959564
H  -0.11847924 1.39300970 0.38011524
H  0.88531764 0.28721095 0.89908224
6
MD Step 109
C  -0.34697447 -0.60398943 0.00566347
H  0.34385894 -1.51979804 0.08236087
H  -1.20410379 -0.40684171 0.73449584
C  0.35807072 0.62651034 -0.18054076
H  -0.13142705 1.39321440 0.37213404
H  0.85932132 0.26480711 0.89685949
6
MD Step 110
C  -0.34547711 -0.60294699 0.00709930
H  0.34475746 -1.52682835 0.07251867
H  -1.20365229 -0.40415550 0.74892860
C  0.35979193 0.62755389 -0.18145967
H  -0.14473735 1.39507730 0.36403104
H  0.83289209 0.24240757 0.89420630
6
MD Step 111
C  -0.34395095 -0.60202151 0.00858042
H  0.34462298 -1.53362150 0.06236744
H  -1.20285898 -0.40222886 0.76339396
C  0.36160514 0.62862348 -0.18235505
H  -0.15836994 1.39853607 0.35575508
H  0.80603547 0.22001912 0.89118170
6
MD Step 112
C  -0.34239925 -0.60121559 0.01011464
H  0.34341937 -1.54011706 0.05190149
H  -1.20165047 -0.40110415 0.77783114
C  0.36350564 0.62972717 -0.18322963
H  -0.17226934 1.40350426 0.34724534
H  0.77875373 0.19764485 0.88785241
6
MD Step 113
C  -0.34082446 -0.60053034 0.01170957
H  0.34111698 -1.54626108 0.04111491
H  -1.19996253 -0.40082196 0.79218328
C  0.36548732 0.63087400 -0.18408632
H  -0.18636686 1.40987503 0.33843440
H  0.75104592 0.17528377 0.88429236
6
MD Step 114
C  -0.33922866 -0.59996562 0.01337251
H  0.33769183 -1.55200460 0.03000370
H  -1.19774076 -0.40142175 0.80639256
C  0.36754250 0.63207346 -0.18492827
H  -0.20057965 1.41752325 0.32925357
H  0.72291500 0.15293664 0.88058277
6
MD Step 115
C  -0.33761294 -0.59951970 0.01511048
H  0.33312633 -1.55730549 0.01856140
H  -1.19493809 -0.40293955 0.82040771
C  0.36966277 0.63333526 -0.18575897
H  -0.21481986 1.42631372 0.31963200
H  0.69435710 0.13059601 0.87681005
6
MD Step 116
C  -0.33597805 -0.59918959 0.01693007
H  0.32740858 -1.56212680 0.00678218
H  -1.19151563 -0.40540866 0.83417716
C  0.37183876 0.63466875 -0.18658207
H  -0.22899411 1.43610294 0.30950117
H  0.66537227 0.10825446 0.87306502
6
MD Step 117
C  -0.33432474 -0.59897114 0.01883722
H  0.32053268 -1.56643640 -0.00533842
H  -1.18744238 -0.40885900 0.84764645
C  0.37406023 0.63608245 -0.18740109
H  -0.24300591 1.44674234 0.29879728
H  0.63597024 0.08590766 0.86944148
6
MD Step 118
C  -0.33265438 -0.59885935 0.02083695
H  0.31249963 -1.57020688 -0.01780197
H  -1.18269541 -0.41331613 0.86075469
C  0.37631604 0.63758361 -0.18821898
H  -0.25675760 1.45808032 0.28746311
H  0.60617870 0.06355878 0.86603456
6
MD Step 119
C  -0.33096963 -0.59884857 0.02293305
H  0.30331881 -1.57341571 -0.03060512
H  -1.17726096 -0.41879978 0.87343030
C  0.37859402 0.63917795 -0.18903765
H  -0.27015175 1.46996315 0.27544976
H  0.57605369 0.04122343 0.86293885
6
MD Step 120
C  -0.32927518 -0.59893281 0.02512788
H  0.29301017 -1.57604607 -0.04373706
H  -1.17113679 -0.42532224 0.88558690
C  0.38088094 0.64086946 -0.18985760
H  -0.28309202 1.48223447 0.26271873
H  0.54569052 0.01893411 0.86024643
6
MD Step 121
C  -0.32757816 -0.59910581 0.02742236
H  0.28160678 -1.57808851 -0.05717749
H  -1.16433631 -0.43288660 0.89712093
C  0.38316250 0.64266058 -0.19067803
H  -0.29548380 1.49473408 0.24924479
H  0.51523072 -0.00325876 0.85804503
6
MD Step 122
C  -0.32588806 -0.59936114 0.02981632
H  0.26915674 -1.57954347 -0.07089620
H  -1.15689358 -0.44148575 0.90791346
C  0.38542373 0.64455270 -0.19149755
H  -0.30723518 1.50729761 0.23501968
H  0.48485992 -0.02529109 0.85641718
6
MD Step 123
C  -0.32421593 -0.59969204 0.03230894
H  0.25572391 -1.58042397 -0.08485494
H  -1.14886776 -0.45110204 0.91783684
C  0.38764963 0.64654687 -0.19231546
H  -0.31825800 1.51975792 0.22005575
H  0.45479587 -0.04709327 0.85544134
6
MD Step 124
C  -0.32261660 -0.60015786 0.03484070
H  0.24150843 -1.58075418 -0.09885819
H  -1.14032003 -0.46152802 0.92672555
C  0.38979523 0.64864545 -0.19310043
H  -0.32813415 1.53186310 0.20450084
H  0.42567220 -0.06791704 0.85527582
6
MD Step 125
C  -0.32107785 -0.60074745 0.03741855
H  0.22642398 -1.58055467 -0.11305790
H  -1.13116208 -0.47283944 0.93466647
C  0.39186916 0.65085888 -0.19384552
H  -0.33692825 1.54371641 0.18816205
H  0.39730248 -0.08802671 0.85601319
6
MD Step 126
C  -0.31960753 -0.60145516 0.04004435
H  0.21056250 -1.57988053 -0.12741006
H  -1.12150910 -0.48498872 0.94155245
C  0.39385551 0.65318962 -0.19455597
H  -0.34457672 1.55518618 0.17105726
H  0.36993004 -0.10738016 0.85773883
6
MD Step 127
C  -0.31821310 -0.60227325 0.04271615
H  0.19402043 -1.57880279 -0.14188830
H  -1.11149934 -0.49792391 0.94729411
C  0.39574135 0.65564103 -0.19523654
H  -0.35102020 1.56615081 0.15323489
H  0.34378032 -0.12596873 0.86054747
6
MD Step 128
C  -0.31689975 -0.60319258 0.04543141
H  0.17689904 -1.57740560 -0.15647482
H  -1.10128630 -0.51158740 0.95182557
C  0.39751546 0.65821630 -0.19589458
H  -0.35621144 1.57650577 0.13475388
H  0.31905430 -0.14380864 0.86454595
6
MD Step 129
C  -0.31567072 -0.60420264 0.04818647
H  0.15930250 -1.57578295 -0.17115991
H  -1.09103289 -0.52591688 0.95510492
C  0.39916812 0.66091771 -0.19653889
H  -0.36011592 1.58616518 0.11567883
H  0.29593043 -0.16093469 0.86985069
6
MD Step 130
C  -0.31452734 -0.60529173 0.05097635
H  0.14133478 -1.57403448 -0.18594166
H  -1.08090588 -0.54084747 0.95711361
C  0.40069104 0.66374608 -0.19717866
H  -0.36271167 1.59506264 0.09607529
H  0.27456462 -0.17739541 0.87658192
6
MD Step 131
C  -0.31346907 -0.60644707 0.05379494
H  0.12309716 -1.57226122 -0.20082461
H  -1.07107204 -0.55631336 0.95785451
C  0.40207714 0.66670055 -0.19782267
H  -0.36398824 1.60315007 0.07600703
H  0.25508969 -0.19324931 0.88485487
6
MD Step 132
C  -0.31249331 -0.60765507 0.05663570
H  0.10468603 -1.57056133 -0.21581823
H  -1.06169576 -0.57224918 0.95734938
C  0.40332047 0.66977852 -0.19847880
H  -0.36394527 1.61039593 0.05553429
H  0.23761343 -0.20856331 0.89476918
6
MD Step 133
C  -0.31159512 -0.60890139 0.05949236
H  0.08619099 -1.56902594 -0.23093531
H  -1.05293751 -0.58859091 0.95563623
C  0.40441599 0.67297569 -0.19915375
H  -0.36259116 1.61678322 0.03471308
H  0.22221609 -0.22341307 0.90639826
6
MD Step 134
C  -0.31076700 -0.61017125 0.06235983
H  0.06769372 -1.56773547 -0.24619004
H  -1.04495323 -0.60527620 0.95276649
C  0.40535953 0.67628631 -0.19985305
H  -0.35994207 1.62230757 0.01359530
H  0.20894847 -0.23788375 0.91977961
6
MD Step 135
C  -0.30999874 -0.61144965 0.06523485
H  0.04926719 -1.56675626 -0.26159611
H  -1.03789384 -0.62224433 0.94880256
C  0.40614765 0.67970327 -0.20058108
H  -0.35602117 1.62697566 -0.00777085
H  0.19783099 -0.25207068 0.93490755
6
MD Step 136
C  -0.30927750 -0.61272175 0.06811650
H  0.03097555 -1.56613768 -0.27716464
H  -1.03190475 -0.63943586 0.94381524
C  0.40677762 0.68321831 -0.20134128
H  -0.35085850 1.63080427 -0.02934018
H  0.18885424 -0.26607900 0.95172920
6
MD Step 137
C  -0.30858807 -0.61397331 0.07100625
H  0.01287496 -1.56591011 -0.29290181
H  -1.02712536 -0.65679159 0.93788141
C  0.40724743 0.68682205 -0.20213623
H  -0.34449117 1.63381948 -0.05106926
H  0.18198127 -0.28002161 0.97014346
6
MD Step 138
C  -0.30791329 -0.61519116 0.07390796
H  -0.00498621 -1.56608327 -0.30880733
H  -1.02368732 -0.67425247 0.93108155
C  0.40755580 0.69050410 -0.20296783
H  -0.33696363 1.63605696 -0.07291648
H  0.17715039 -0.29401688 0.99000477
6
MD Step 139
C  -0.30723463 -0.61636362 0.07682745
H  -0.02256602 -1.56664584 -0.32487267
H  -1.02171278 -0.69175874 0.92349720
C  0.40770223 0.69425309 -0.20383739
H  -0.32832842 1.63756225 -0.09484150
H  0.17427920 -0.30818490 1.01112897
6
MD Step 140
C  -0.30653287 -0.61748089 0.07977204
H  -0.03982785 -1.56756575 -0.34108001
H  -1.02131176 -0.70924952 0.91520826
C  0.40768709 0.69805663 -0.20474572
H  -0.31864674 1.63839149 -0.11680551
H  0.17326857 -0.32264387 1.03330172
6
MD Step 141
C  -0.30578872 -0.61853532 0.08275010
H  -0.05673933 -1.56879168 -0.35740184
H  -1.02257921 -0.72666248 0.90629010
C  0.40751164 0.70190130 -0.20569317
H  -0.30798887 1.63861237 -0.13877187
H  0.17400658 -0.33750659 1.05628801
6
MD Step 142
C  -0.30498356 -0.61952147 0.08577052
H  -0.07327121 -1.57025532 -0.37380110
H  -1.02559163 -0.74393363 0.89681070
C  0.40717802 0.70577265 -0.20667961
H  -0.29643444 1.63830500 -0.16070720
H  0.17637209 -0.35287762 1.07984173
6
MD Step 143
C  -0.30409998 -0.62043617 0.08884238
H  -0.08939662 -1.57187447 -0.39023222
H  -1.03040387 -0.76099733 0.88682789
C  0.40668930 0.70965517 -0.20770438
H  -0.28407212 1.63756268 -0.18258300
H  0.18023770 -0.36885117 1.10371476
6
MD Step 144
C  -0.30312231 -0.62127835 0.09197468
H  -0.10509008 -1.57355653 -0.40664214
H  -1.03704604 -0.77778584 0.87638728
C  0.40604935 0.71353229 -0.20876623
H  -0.27099919 1.63649223 -0.20437684
H  0.18547217 -0.38550951 1.12766370
6
MD Step 145
C  -0.30203702 -0.62204882 0.09517621
H  -0.12032717 -1.57520230 -0.42297209
H  -1.04552101 -0.79422928 0.86552073
C  0.40526281 0.71738643 -0.20986321
H  -0.25732036 1.63521399 -0.22607419
H  0.19194217 -0.40292246 1.15145553
6
MD Step 146
C  -0.30083297 -0.62275010 0.09845543
H  -0.13508415 -1.57670960 -0.43915936
H  -1.05580257 -0.81025530 0.85424591
C  0.40433485 0.72119908 -0.21099257
H  -0.24314617 1.63386107 -0.24766987
H  0.19951346 -0.42114708 1.17487090
6
MD Step 147
C  -0.29950156 -0.62338609 0.10182042
H  -0.14933806 -1.57797673 -0.45513923
H  -1.06783467 -0.82578909 0.84256684
C  0.40327104 0.72495099 -0.21215060
H  -0.22859041 1.63257782 -0.26916968
H  0.20805187 -0.44022810 1.19770613
6
MD Step 148
C  -0.29803666 -0.62396182 0.10527889
H  -0.16306699 -1.57890536 -0.47084688
H  -1.08153171 -0.84075353 0.83047541
C  0.40207698 0.72862244 -0.21333254
H  -0.21376687 1.63151712 -0.29059167
H  0.21742386 -0.46019855 1.21977392
6
MD Step 149
C  -0.29643451 -0.62448324 0.10883807
H  -0.17625033 -1.57940299 -0.48621881
H  -1.09677988 -0.85506927 0.81795395
C  0.40075794 0.73219360 -0.21453247
H  -0.19878529 1.63083662 -0.31196695
H  0.22749693 -0.48108043 1.24090261
6
MD Step 150
C  -0.29469342 -0.62495696 0.11250463
H  -0.18886937 -1.57938485 -0.50119432
H  -1.11343964 -0.86865543 0.80497831
C  0.39931838 0.73564500 -0.21574324
H  -0.18374605 1.63069363 -0.33334023
H  0.23814008 -0.50288583 1.26093556
6
MD Step 151
C  -0.29281339 -0.62539007 0.11628452
H  -0.20090790 -1.57877530 -0.51571655
H  -1.13134901 -0.88143014 0.79152145
C  0.39776130 0.73895817 -0.21695644
H  -0.16873421 1.63123891 -0.35476975
H  0.24922410 -0.52561792 1.27972986
6
MD Step 152
C  -0.29079558 -0.62578998 0.12018275
H  -0.21235282 -1.57750893 -0.52973313
H  -1.15032710 -0.89331108 0.77755721
C  0.39608756 0.74211624 -0.21816236
H  -0.15381272 1.63260954 -0.37632637
H  0.26062177 -0.54927186 1.29715485
6
MD Step 153
C  -0.28864174 -0.62616429 0.12420317
H  -0.22319513 -1.57553149 -0.54319684
H  -1.17017813 -0.90421612 0.76306377
C  0.39429495 0.74510470 -0.21935008
H  -0.13901434 1.63492130 -0.39809263
H  0.27220813 -0.57383623 1.31309119
6
MD Step 154
C  -0.28635333 -0.62652070 0.12834813
H  -0.23343111 -1.57280076 -0.55606578
H  -1.19069466 -0.91406318 0.74802724
C  0.39237696 0.74791213 -0.22050733
H  -0.12433224 1.63826109 -0.42016148
H  0.28386030 -0.59929432 1.32742958
6
MD Step 155
C  -0.28393043 -0.62686698 0.13261808
H  -0.24306437 -1.56928807 -0.56830359
H  -1.21165968 -0.92276910 0.73244503
C  0.39032097 0.75053099 -0.22162035
H  -0.10970689 1.64268005 -0.44263610
H  0.29545691 -0.62562628 1.34006984
6
MD Step 156
C  -0.28136978 -0.62721114 0.13701084
H  -0.25210985 -1.56498128 -0.57987948
H  -1.23284569 -0.93024580 0.71633034
C  0.38810485 0.75295845 -0.22267310
H  -0.09500403 1.64818783 -0.46563319
H  0.30687621 -0.65281278 1.35091965
6
MD Step 157
C  -0.27866047 -0.62756189 0.14151988
H  -0.26060391 -1.55989241 -0.59076823
H  -1.25400583 -0.93638897 0.69972084
C  0.38568889 0.75519773 -0.22364497
H  -0.07996309 1.65474753 -0.48929760
H  0.31799050 -0.68084354 1.35989262
