2
MD Step 0
Li	0.0	0.0	0.0
H	0.0	0.0	3.0
2
MD Step 1
Li	0.0009126010562740962	0.0009126316313708525	0.0014077866891286644
H	0.0023959596840298176	0.002395898133637536	2.998982868597809
2
MD Step 2
Li	0.0018256928402129557	0.001825753960632313	0.0038072362383945943
H	0.004788536904582849	0.0047884140090241195	2.99113045227783
2
MD Step 3
Li	0.0027397734564955905	0.0027398650588257682	0.007203685910035984
H	0.007174298350261858	0.007174114546618273	2.9764059626217945
2
MD Step 4
Li	0.00365535712251088	0.003655479108458351	0.011606523786048713
H	0.009549699648776656	0.009549455614561006	2.9547446899205343
2
MD Step 5
Li	0.0045729831320723835	0.004573135376900837	0.017029136437852206
H	0.011911023582292181	0.011910720177280756	2.9260543638739276
2
MD Step 6
Li	0.005493225111080784	0.005493407450817727	0.023488800008865388
H	0.014254316290454266	0.014253954644868592	2.890215904331557
2
MD Step 7
Li	0.0064167005013906035	0.006416912733043282	0.031006472093595795
H	0.016575321900460297	0.016574903413478833	2.847084855818272
2
MD Step 8
Li	0.0073440800501058156	0.007344321931558395	0.039606418752270396
H	0.01886941711970979	0.018868943460176636	2.7964939584293695
2
MD Step 9
Li	0.008276096731698752	0.008276367973281061	0.04931557814384607
H	0.02113154973786267	0.021131022902402114	2.7382575341496365
2
MD Step 10
Li	0.009213552973056115	0.009213853236258394	0.060162516489831334
H	0.02335618882639799	0.023355611148273447	2.6721786831344945
2
MD Step 11
Li	0.010157324173579483	0.010157653065474384	0.0721757699933811
H	0.02553730047543855	0.025536674663000258	2.5980607124483934
2
MD Step 12
Li	0.011108354997977764	0.01110871206541102	0.0853812860741179
H	0.027668373346608415	0.0276677025233358	2.5157247729954055
2
MD Step 13
Li	0.012067642698627241	0.012068027428037724	0.09979857879281667
H	0.029742533627848237	0.029741821333590154	2.425036359218591
2
MD Step 14
Li	0.013036198072227488	0.013036609886845357	0.11543508946747014
H	0.03175281414945421	0.03175206435974139	2.325944179967812
2
MD Step 15
Li	0.014014968581224703	0.014015406847960361	0.13227804990268624
H	0.033692684288944647	0.03369190136750588	2.2185362432313678
2
MD Step 16
Li	0.015004697046666418	0.015005161086135482	0.15028278812544352
H	0.035557023965990905	0.03555621259565342	2.1031204617845725
2
MD Step 17
Li	0.016005670945364085	0.016006160062656323	0.1693560434628882
H	0.037343851674586766	0.037343016645193586	1.9803396581996984
2
MD Step 18
Li	0.01701730359224564	0.017017817128000892	0.18933391289491588
H	0.03905721128869964	0.03905635714505596	1.8513235751406432
2
MD Step 19
Li	0.018037525442663845	0.018038062862988292	0.20995947859991088
H	0.04071136766373814	0.040710498085840985	1.7178430831136968
2
MD Step 20
Li	0.019062067480317236	0.019062628518469616	0.23087235070988898
H	0.042335746064993685	0.04233486289142415	1.5823822596498216
2
MD Step 21
Li	0.020083659787924868	0.020084244627696257	0.25161393106992563
H	0.043980456220219066	0.043979558184151016	1.448102107522931
2
MD Step 22
Li	0.021090654156820276	0.02109126370230858	0.2716246076636573
H	0.04572578632837549	0.04572486719808742	1.318859892875606
2
MD Step 23
Li	0.022064200120774747	0.022064836449461844	0.29021339870334223
H	0.04770166795460045	0.047700713410527604	1.199418380939938
2
MD Step 24
Li	0.022973881373013854	0.02297454847046724	0.30653729722311074
H	0.050117753120067075	0.050116735690686136	1.095588208607785
2
MD Step 25
Li	0.023773159277808546	0.023773863977200792	0.3196518574490756
H	0.05329482104085813	0.05329369362681373	1.0138792051905197
2
MD Step 26
Li	0.024397361562642	0.024398114716643843	0.32864936315791493
H	0.05767864157153095	0.057677329368068825	0.9605480323624974
2
MD Step 27
Li	0.02476890906648333	0.024769726313531103	0.3328498111924893
H	0.06380394853206109	0.06380234374733754	0.9402817823915492
2
MD Step 28
Li	0.02481445245389201	0.024815354088120113	0.33197724474079976
H	0.07217632060893583	0.0721742833605409	0.9549825567991088
2
MD Step 29
Li	0.02449011838708468	0.024491127368240856	0.32623925339043514
H	0.08309816578383773	0.08309553781595302	1.003219492300714
2
MD Step 30
Li	0.02379909016105569	0.02380022926381135	0.3162655862124231
H	0.09654754239782358	0.09654416673031578	1.0806518855180098
2
MD Step 31
Li	0.022789139790315473	0.022790428786992563	0.30294092367251707
H	0.11219516986229668	0.11219091020947893	1.1811818545117772
2
MD Step 32
Li	0.021534456621157	0.021535910703952253	0.2872122358058987
H	0.12952967950534083	0.12952443115118786	1.298282170866726
2
MD Step 33
Li	0.020114962795690573	0.020116592189557466	0.26994056206715183
H	0.1480001879224004	0.14799388038885647	1.4260179042409837
2
MD Step 34
Li	0.01860341152541719	0.018605221946129923	0.25183669272782805
H	0.16710522536071631	0.1670978192503745	1.5594897544609259
2
MD Step 35
Li	0.017062476223460552	0.01706446949556334	0.23347407828508374
H	0.18641279960530177	0.1864042823420336	1.6947450701851798
2
MD Step 36
Li	0.015545956759280293	0.015548131367512041	0.21532214047648784
H	0.20555208156586952	0.20554246359399203	1.8285482443824983
2
MD Step 37
Li	0.014098197181578441	0.014100548859158445	0.19775400093468207
H	0.2242174187677018	0.2242067294970709	1.9583274426415938
2
MD Step 38
Li	0.012752441529121205	0.0127549639456676	0.1810405447554124
H	0.24217966833783308	0.24216795140219308	2.082215521517012
2
MD Step 39
Li	0.011531065178318818	0.01153375061383492	0.16535777188230283
H	0.2592846023838469	0.2592719109952107	2.1989993572662563
2
MD Step 40
Li	0.010447702314992468	0.010450542207384258	0.15080785862172602
H	0.2754382438612697	0.27542463703601716	2.3079746740774767
2
MD Step 41
Li	0.009509742562486592	0.009512727891082018	0.13744160559535648
H	0.29058965793829034	0.2905751978536656	2.4087913159277905
2
MD Step 42
Li	0.008720350119773375	0.00872347166108757	0.12527589480599055
H	0.30471703458008675	0.30470178481127186	2.501332919379851
2
MD Step 43
Li	0.00807992431064107	0.008083172819596925	0.11430598532533977
H	0.31781762134732	0.3178016456183272	2.585632162470648
2
MD Step 44
Li	0.007587138537984512	0.007590504853303368	0.10451406188261694
H	0.32990056214317476	0.32988392360041424	2.661811841421169
2
MD Step 45
Li	0.0072396764773718664	0.007243151581723327	0.09587516522445878
H	0.34098182281460365	0.34096458361228626	2.730043994143623
2
MD Step 46
Li	0.0070347461910889395	0.007038321239880525	0.08836124713745856
H	0.35108064749236567	0.3510628685940628	2.7905219499818594
2
MD Step 47
Li	0.006969431459576972	0.00697309778892268	0.0819438794387793
H	0.3602171369509964	0.36019887807471473	2.8434416573143007
2
MD Step 48
Li	0.007040926559248154	0.007044675675943493	0.07659601632443987
H	0.36841063034384525	0.3683919500311265	2.888989536126481
2
MD Step 49
Li	0.007246689926483876	0.007250513496438591	0.07229310856998895
H	0.3756786460354375	0.37565960173108837	2.927334798103521
2
MD Step 50
Li	0.007584542912054422	0.0075884327358727065	0.06901378564990725
H	0.38203620091187385	0.3820168491322859	2.9586247449511105
2
MD Step 51
Li	0.00805273230427531	0.008056680292836004	0.06674025746378934
H	0.3874953794242982	0.38747577592576743	2.9829819993970688
2
MD Step 52
Li	0.008649969677264627	0.00865396782138927	0.06545853952283516
H	0.3920650623711678	0.3920452623589649	3.000502953036988
2
MD Step 53
Li	0.009375456432028412	0.00937949677086403	0.0651585712341931
H	0.39575075429629303	0.3957308126425933	3.011256951029739
2
MD Step 54
Li	0.010228900429168202	0.010232975021140603	0.06583427254460089
H	0.3985544688437303	0.3985344402878251	3.0152859016669735
2
MD Step 55
Li	0.011210527950467465	0.011214628837037131	0.06748356697724861
H	0.4004746463095479	0.40045458570766646	3.0126041175857696
2
MD Step 56
Li	0.012321093070180512	0.012325212248852293	0.07010838612759128
H	0.40150608904786794	0.4014860515592147	3.003198284780116
2
MD Step 57
Li	0.013561885215400823	0.013566014601937522	0.07371466029642985
H	0.4016399093591314	0.4016199507063384	2.987027527164751
2
MD Step 58
Li	0.01493473437030482	0.014938865770451637	0.07831229023749435
H	0.4008634936185434	0.4008436702825664	2.964023601312027
2
MD Step 59
Li	0.0164420120308373	0.016446137098679658	0.0839150846016421
H	0.3991604956956642	0.39914086520281206	2.9340913276334626
2
MD Step 60
Li	0.018086624177722808	0.018090734387153758	0.0905406345964794
H	0.39651088538969026	0.39649150650829307	2.897109454319729
2
MD Step 61
Li	0.019871990185474787	0.019876076799605992	0.09821008010385272
H	0.3928910938043973	0.39287202675564864	2.8529322694344827
2
MD Step 62
Li	0.021801998115407152	0.021806052157522193	0.10694769695190677
H	0.3882743215022682	0.3882556281604369	2.8013924457451997
2
MD Step 63
Li	0.02388092197725804	0.023884934206906714	0.11678020072216924
H	0.38263110879949713	0.3826128528567032	2.7423058394074076
2
MD Step 64
Li	0.026113279570256404	0.02611724046269069	0.12773561454506221
H	0.3759303156320839	0.3759125627400413	2.675479293968019
2
MD Step 65
Li	0.028503600059117604	0.028507499806576922	0.1398414839589509
H	0.36814072359656347	0.3681235413577213	2.6007229448969507
2
MD Step 66
Li	0.031056058013606478	0.031059886552822078	0.15312213981363257
H	0.3592335584240801	0.3592170162020415	2.5178690857111414
2
MD Step 67
Li	0.0337739149221843	0.03377766198681758	0.1675946100754409
H	0.3491863394876132	0.34917050804569133	2.4268003468829624
2
MD Step 68
Li	0.0366586881213716	0.03666234334971821	0.18326265224898627
H	0.33798860816473086	0.33797355892357095	2.327490828869712
2
MD Step 69
Li	0.0397089320200038	0.03971248514315462	0.20010816440851187
H	0.32565032855500936	0.3256361322956424	2.220065303733633
2
MD Step 70
Li	0.042918453215844574	0.042921894340955315	0.218078848767601
H	0.31221419023632585	0.31220091514766174	2.1048842470809994
2
MD Step 71
Li	0.04627372753347536	0.04627704761648239	0.23707074414626222
H	0.29777341197886925	0.2977611203993844	1.9826642374126258
2
MD Step 72
Li	0.04975050021697759	0.04975369171679134	0.25690592790450373
H	0.28249517576956196	0.28248391967810704	1.8546316511378307
2
MD Step 73
Li	0.05331043454938066	0.05331349230288544	0.2773119926191671
H	0.2666437270428557	0.26663354202750017	1.7226641247254737
2
MD Step 74
Li	0.05689952043419675	0.05690244263098612	0.29791556170133354
H	0.250591343931543	0.25058224247096716	1.5893352499369122
2
MD Step 75
Li	0.06044805164748261	0.06045084080433769	0.31824873680837695
H	0.23481849406262476	0.23481045880928378	1.4578701334217652
2
MD Step 76
Li	0.06386798295392354	0.06387064705071904	0.33774142998199685
H	0.21993205129739152	0.21992502724799795	1.332198249379203
2
MD Step 77
Li	0.0670454954554444	0.06704804954377044	0.35568940479675465
H	0.20671654093032119	0.2067104243380161	1.2171737239551725
2
MD Step 78
Li	0.06983517220908206	0.06983764036171489	0.37124522719140807
H	0.1961742857033278	0.19616891064046463	1.1186377089064599
2
MD Step 79
Li	0.07206469128553629	0.07206710830710922	0.38348728867840187
H	0.18949305772293826	0.189488184289855	1.0429426218220619
2
MD Step 80
Li	0.07355363825927666	0.0735560501875284	0.3915704384755456
H	0.18791640865509765	0.18791171952513663	0.9959138763853791
2
MD Step 81
Li	0.07414591097239175	0.074148373476742	0.39491516504387336
H	0.19252031176501297	0.19251542322273987	0.981545901188232
2
MD Step 82
Li	0.07375002209693307	0.07375259653532838	0.3933628365506961
H	0.2039353664005395	0.20392985552092252	1.0009321059135339
2
MD Step 83
Li	0.07237058262217781	0.07237333011607834	0.3872203209235701
H	0.22212979016190273	0.22212323564995204	1.05195732642507
2
MD Step 84
Li	0.07011067660766009	0.07011365183427073	0.3771696737390917
H	0.24639305032097333	0.24638507530034398	1.1299203236392703
2
MD Step 85
Li	0.06714227748136793	0.06714552440917114	0.3640936607711979
H	0.2755397769039032	0.2755300783108051	1.2287364131103593
2
MD Step 86
Li	0.0636624384736104	0.06366598885862092	0.34889567999842847
H	0.30821173111071704	0.30820009005885596	1.3421786977489176
2
MD Step 87
Li	0.05985667688582847	0.05986055097334111	0.33237390325598837
H	0.3431301884237367	0.34311646536734186	1.4647455780433687
2
MD Step 88
Li	0.055882449047613546	0.05588665729881117	0.3151786911089522
H	0.37920984160989996	0.37919396444264514	1.591954280724415
2
MD Step 89
Li	0.05187066013707229	0.05187520488571609	0.29783515543004685
H	0.4155483939053154	0.4155303465411665	1.7201853405402217
2
MD Step 90
Li	0.04793066052397036	0.04793553731280524	0.2807723889925868
H	0.45139212046733823	0.4513719336290437	1.8464811279579434
2
MD Step 91
Li	0.04414953392372884	0.044154732880988645	0.26432615942234905
H	0.486140774951641	0.48611851668282435	1.9685272804249299
2
MD Step 92
Li	0.040590074691716334	0.04059558205080622	0.24873462049431666
H	0.5193615315184884	0.5193372967088564	2.0846822633312936
2
MD Step 93
Li	0.03729290326608218	0.03729870273514353	0.23414887811245386
H	0.550774403612573	0.5507483045578463	2.193904541344943
2
MD Step 94
Li	0.03428163027206014	0.03428770408890568	0.22065429689135133
H	0.58021664907923	0.5801888082097382	2.2956057174550804
2
MD Step 95
Li	0.031568053287618546	0.03157438296260814	0.208291177722525
H	0.6076069501541312	0.6075774949143552	2.3895080076616932
2
MD Step 96
Li	0.029156133517010636	0.029162700308594715	0.19707030743837098
H	0.6329180032437103	0.6328870628144796	2.475537061017749
2
MD Step 97
Li	0.027044812696314792	0.027051597929776895	0.18698383259445264
H	0.6561571026974008	0.6561248057988813	2.5537470093582386
2
MD Step 98
Li	0.02522999288071113	0.02523697813581477	0.17801281467370303
H	0.6773524946274123	0.6773189682257028	2.6242683911607787
2
MD Step 99
Li	0.023705921327009032	0.02371308854081787	0.17013245771920923
H	0.6965438312586564	0.6965091998570747	2.68727211877585
2
MD Step 100
Li	0.022466143258915952	0.022473474769492366	0.16331566510297174
H	0.713775603755231	0.7137399890931109	2.742944962506277
2
MD Step 101
Li	0.02150414238796249	0.021511620942079115	0.1575354013261627
H	0.7290927272693367	0.729056248268874	2.791473271306741
2
MD Step 102
Li	0.020813761142176965	0.02082136986447062	0.1527662183153975
H	0.7425376444097675	0.7425004173886345	2.8330324524040167
2
MD Step 103
Li	0.020389469713098105	0.020397192075223735	0.14898521315164812
H	0.7541484707679135	0.7541106096518725	2.8677803699102924
2
MD Step 104
Li	0.020226534102518064	0.02023435386916815	0.1461726089657418
H	0.7639578366134474	0.7639194533084265	2.8958533408552882
2
MD Step 105
Li	0.020321118467126024	0.020329019636908974	0.14431209285690552
H	0.7719921814582068	0.7719533862578097	2.9173638059979576
2
MD Step 106
Li	0.020670346033042693	0.0206783127888721	0.14339100198959276
H	0.7782713341874907	0.7782322361149518	2.932399047107445
2
MD Step 107
Li	0.02127233493945158	0.0212803515837695	0.14340041864817582
H	0.7828082659988438	0.7827689732535171	2.9410205317747837
2
MD Step 108
Li	0.022126219630081833	0.022134270510828263	0.1443352134471295
H	0.7856089429558964	0.7855695634235303	2.9432636155758742
2
MD Step 109
Li	0.023232164330364246	0.02324023378879586	0.14619406049186748
H	0.7866722330936882	0.7866328747060973	2.939137437571613
2
MD Step 110
Li	0.024591372113344192	0.024599444414887785	0.1489794366487193
H	0.7859898439295895	0.7859506151412652	2.928624925339763
2
MD Step 111
Li	0.026206090315477923	0.02621414959060879	0.15269760740972482
H	0.783546285133568	0.7835072953291883	2.9116828924054
2
MD Step 112
Li	0.028079610673383413	0.02808764084359482	0.15735859268949917
H	0.7793188675855983	0.7792802275903026	2.888242273994597
2
MD Step 113
Li	0.030216259624040977	0.0302242443434937	0.1629760955759843
H	0.7732777702339622	0.7732395927155458	2.858208618137737
2
MD Step 114
Li	0.03262137067675198	0.0326292932680117	0.16956736412983558
H	0.7653862305284502	0.7653486304403111	2.821463038251892
2
MD Step 115
Li	0.035301225746510685	0.03530906914142637	0.17715293864726134
H	0.7556009487948071	0.7555640437834559	2.777863955195073
2
MD Step 116
Li	0.03826294537032013	0.038270692058613935	0.18575621209344156
H	0.7438728449463018	0.7438367557057192	2.727250127089113
2
MD Step 117
Li	0.04151429775725244	0.04152192975310317	0.19540269640851995
H	0.7301483746540668	0.7301132251560353	2.669445706489586
2
MD Step 118
Li	0.045063382762892755	0.045070881576660296	0.2061188392528926
H	0.714371707632485	0.7143376253214854	2.6042683962655993
2
MD Step 119
Li	0.04891812817324335	0.048925474816609665	0.21793017145991256
H	0.6964881996286847	0.6964553153864601	2.531542218746542
2
MD Step 120
Li	0.05308551176204818	0.05309268681742098	0.23085848465260428
H	0.6764497545874951	0.6764182022546694	2.451116969706584
2
MD Step 121
Li	0.05757039291673309	0.05757737665805949	0.24491764017202994
H	0.6542228779626179	0.6541927935059566	2.3628971063767943
2
MD Step 122
Li	0.06237379700390088	0.062380569635724394	0.260107479029905
H	0.6298005021576377	0.6297720220222881	2.2668837246237903
2
MD Step 123
Li	0.0674904250027114	0.06749696706631166	0.2764050738411379
H	0.6032191520023972	0.6031924103124688	2.163234857198237
2
MD Step 124
Li	0.0729050404292172	0.07291133341439004	0.29375217661252284
H	0.5745838487829729	0.5745589731246893	2.0523519929986866
2
MD Step 125
Li	0.07858734518181539	0.07859337245739557	0.31203764550296104
H	0.5441034297617539	0.5440805347695916	1.935001205033149
2
MD Step 126
Li	0.08448559422179065	0.08449134237231429	0.3310759771302944
H	0.5121345605928842	0.5121137387362921	1.8124611218771556
2
MD Step 127
Li	0.0905211090323598	0.09052656952966354	0.350589800311167
H	0.4792195526815199	0.4792008627430021	1.6866435939613649
2
MD Step 128
Li	0.09658680802541984	0.09659197899432051	0.3702073740795799
H	0.4460964927238107	0.4460799476285374	1.560110939106034
2
MD Step 129
Li	0.10254787827019911	0.10255276620970369	0.38946873991349806
H	0.41369461264873975	0.4136801676006759	1.4360335367564898
2
MD Step 130
Li	0.10823639435456077	0.10824101619915405	0.4078133498817187
H	0.38317138046588195	0.38315891873984487	1.3182751040830203
2
MD Step 131
Li	0.11343935705354831	0.11344374298352566	0.42455002414939674
H	0.3559949467416953	0.3559842603124315	1.2115997714070346
2
MD Step 132
Li	0.11789494657771031	0.11789914302666815	0.4388616053857168
H	0.33396997002492074	0.333960738837224	1.121640000529118
2
MD Step 133
Li	0.12131113653053581	0.12131520805412853	0.44988877380886294
H	0.3191093154776066	0.3191010945654421	1.0543188685153924
2
MD Step 134
Li	0.12340813011820267	0.1234121587489459	0.4568847524931326
H	0.31334155265875946	0.31333377659244377	1.0147837225766827
2
MD Step 135
Li	0.12397696973053482	0.12398105040744818	0.4593920238664439
H	0.31810697429154905	0.31809898868008407	1.0061881172987102
2
MD Step 136
Li	0.12293696435971262	0.12294119702915884	0.45736774337381697
H	0.3339617633802217	0.33395287931824136	1.0288273695197219
2
MD Step 137
Li	0.12036430330414372	0.12036878325730155	0.45119299882078456
H	0.3603807660814335	0.3603703267505944	1.080074735984304
2
MD Step 138
Li	0.1164727428435391	0.11647755206408462	0.44156252577503746
H	0.39589061363900363	0.3958780539462616	1.1551415775908243
2
MD Step 139
Li	0.11155637155921369	0.11156157375453474	0.42931488463035866
H	0.43846422676504054	0.43844910759125044	1.2482479065604875
2
MD Step 140
Li	0.10592406171689057	0.10592970138756404	0.4152737542344394
H	0.48597262591993756	0.4859546405337149	1.3537163099024052
2
MD Step 141
Li	0.09985262240509815	0.09985872685502468	0.4001482945830751
H	0.5365078350525768	0.5364867952549401	1.4666587245273852
2
MD Step 142
Li	0.0935715086128177	0.09357809087882585	0.38451071458881875
H	0.5884882781167626	0.5884640940481022	1.5831310570272552
2
MD Step 143
Li	0.08727004332090546	0.08727710466830044	0.368823846061466
H	0.6406089989951931	0.6405816619340753	1.6999431231003341
2
MD Step 144
Li	0.08110460387090278	0.08111213584323831	0.3534642030361237
H	0.6917921276504911	0.6917616958850924	1.8144997053507184
2
MD Step 145
Li	0.07519687072683087	0.07520485730215136	0.33872110782835363
H	0.7411989509736486	0.7411655349393156	1.9248065771723346
2
MD Step 146
Li	0.06963216274058573	0.06964058259141387	0.3247949278175702
H	0.7882413873847153	0.7882051340864328	2.029482656161494
2
MD Step 147
Li	0.06446414176516464	0.0644729702275081	0.3118097703444914
H	0.8325495591064772	0.8325106385469968	2.127672501353028
2
MD Step 148
Li	0.05972293485821905	0.05973214539932857	0.2998336617871782
H	0.8739158078398693	0.8738744029028183	2.2189072238788934
2
MD Step 149
Li	0.055422593485618774	0.055432158688491516	0.28889668463073087
H	0.9122432803330521	0.9121995799969971	2.3029794726675092
2
MD Step 150
Li	0.05156662194698182	0.05157651418383354	0.27900426398695544
H	0.9475078223222235	0.947462017018595	2.3798518537754347
2
MD Step 151
Li	0.04815186079131518	0.048162052637431535	0.27014641544761775
H	0.9797312111155688	0.979683489876087	2.449593187239962
2
MD Step 152
Li	0.04517120547529589	0.04518166994551882	0.26230416538769796
H	1.0089624165593687	1.0089129653860018	2.512334253529077
2
MD Step 153
Li	0.04261549648363317	0.042626207163456636	0.25545397875994075
H	1.0352645729094654	1.03521357387082	2.5682372738572776
2
MD Step 154
Li	0.04047480918003807	0.04048574026673615	0.24957075543447413
H	1.0587060882100316	1.0586537191578655	2.617475257163434
2
MD Step 155
Li	0.0387393130678143	0.0387504393704412	0.24462980726906272
H	1.079354721624492	1.079301156193716	2.660218372658326
2
MD Step 156
Li	0.037399829851563926	0.037411126752396384	0.24060812688708008
H	1.097273736855287	1.0972191447297313	2.696625204454331
2
MD Step 157
Li	0.036448186508856784	0.03645962989399045	0.23748517732626245
H	1.1125194685088589	1.1124640158996555	2.726837308713388
2
MD Step 158
Li	0.03587743247988187	0.03588899867239821	0.23524336607318722
H	1.1251398250615214	1.1250836751677684	2.750975946245494
2
MD Step 159
Li	0.03568196928000456	0.03569363494743264	0.23386831691984708
H	1.1351733954724101	1.135116709119014	2.769140208669098
2
MD Step 160
Li	0.03585762541969576	0.03586936748918563	0.23334901652611512
H	1.1426489327790834	1.1425918690014474	2.781406008192563
2
MD Step 161
Li	0.03640169863535321	0.036413494206278735	0.23367788661236852
H	1.1475850630109983	1.1475277796574306	2.787825580008403
2
MD Step 162
Li	0.037312979591925116	0.03732480583820479	0.23485081433771285
H	1.1499901218132333	1.1499327762182243	2.7884272729037556
2
MD Step 163
Li	0.03859176552714891	0.03860359960213719	0.23686716018371987
H	1.1498620604001533	1.1498048100399356	2.7832154949197445
2
MD Step 164
Li	0.04023986800162286	0.04025168694814251	0.23972975249467549
H	1.1471883921360944	1.147131395248769	2.772170750984186
2
MD Step 165
Li	0.04226061514285666	0.042272395798090064	0.2434448692167148
H	1.141946177067686	1.1418895933087811	2.7552497687791817
2
MD Step 166
Li	0.04465884510076652	0.04467056399600601	0.24802219894182354
H	1.1341020670334894	1.1340460581669574	2.732385767255106
2
MD Step 167
Li	0.04744088311106196	0.04745251638688315	0.2534747635793461
H	1.123612463760357	1.1235571942432632	2.703488989636626
2
MD Step 168
Li	0.05061448905437998	0.05062601236553311	0.2598187725055504
H	1.1104238803252489	1.1103695179633315	2.6684477087334004
2
MD Step 169
Li	0.0541887547029312	0.05420014314379648	0.26707336079885474
H	1.0944736494084888	1.0944203658699767	2.627130031219409
2
MD Step 170
Li	0.05817391904516212	0.05818514707263462	0.2752601400749822
H	1.0756911962148359	1.0756391675619852	2.5793869936142793
2
MD Step 171
Li	0.06258105470474896	0.06259209608425796	0.2844024563822616
H	1.0540001999091997	1.053949606970367	2.5250576774260063
