2
MD Step 0
H  0.00000000 0.00000000 0.00000000
H  0.00000000 0.00000000 3.00000000
2
MD Step 1
H  0.00021860 0.00021856 0.00021920
H  0.00021870 0.00021873 3.00021837
2
MD Step 2
H  0.00043720 0.00043712 0.00043925
H  0.00043741 0.00043747 3.00043589
2
MD Step 3
H  0.00065581 0.00065569 0.00066017
H  0.00065611 0.00065620 3.00065254
2
MD Step 4
H  0.00087441 0.00087425 0.00088194
H  0.00087481 0.00087493 3.00086833
2
MD Step 5
H  0.00109301 0.00109281 0.00110458
H  0.00109351 0.00109367 3.00108327
2
MD Step 6
H  0.00131161 0.00131137 0.00132807
H  0.00131222 0.00131240 3.00129734
2
MD Step 7
H  0.00153022 0.00152993 0.00155242
H  0.00153092 0.00153114 3.00151056
2
MD Step 8
H  0.00174882 0.00174849 0.00177764
H  0.00174962 0.00174987 3.00172291
2
MD Step 9
H  0.00196742 0.00196706 0.00200371
H  0.00196833 0.00196860 3.00193441
2
MD Step 10
H  0.00218602 0.00218562 0.00223065
H  0.00218703 0.00218734 3.00214504
2
MD Step 11
H  0.00240463 0.00240418 0.00245844
H  0.00240573 0.00240607 3.00235481
2
MD Step 12
H  0.00262323 0.00262274 0.00268710
H  0.00262443 0.00262480 3.00256373
2
MD Step 13
H  0.00284183 0.00284130 0.00291661
H  0.00284314 0.00284354 3.00277178
2
MD Step 14
H  0.00306043 0.00305987 0.00314698
H  0.00306184 0.00306227 3.00297898
2
MD Step 15
H  0.00327904 0.00327843 0.00337822
H  0.00328054 0.00328100 3.00318531
2
MD Step 16
H  0.00349764 0.00349699 0.00361031
H  0.00349925 0.00349974 3.00339079
2
MD Step 17
H  0.00371624 0.00371555 0.00384327
H  0.00371795 0.00371847 3.00359540
2
MD Step 18
H  0.00393484 0.00393411 0.00407708
H  0.00393665 0.00393720 3.00379915
2
MD Step 19
H  0.00415344 0.00415267 0.00431176
H  0.00415535 0.00415594 3.00400205
2
MD Step 20
H  0.00437205 0.00437124 0.00454729
H  0.00437406 0.00437467 3.00420408
2
MD Step 21
H  0.00459065 0.00458980 0.00478369
H  0.00459276 0.00459341 3.00440526
2
MD Step 22
H  0.00480925 0.00480836 0.00502094
H  0.00481146 0.00481214 3.00460557
2
MD Step 23
H  0.00502785 0.00502692 0.00525906
H  0.00503017 0.00503087 3.00480502
2
MD Step 24
H  0.00524646 0.00524548 0.00549804
H  0.00524887 0.00524961 3.00500361
2
MD Step 25
H  0.00546506 0.00546405 0.00573787
H  0.00546757 0.00546834 3.00520134
2
MD Step 26
H  0.00568366 0.00568261 0.00597857
H  0.00568627 0.00568707 3.00539822
2
MD Step 27
H  0.00590226 0.00590117 0.00622013
H  0.00590498 0.00590581 3.00559423
2
MD Step 28
H  0.00612087 0.00611973 0.00646255
H  0.00612368 0.00612454 3.00578938
2
MD Step 29
H  0.00633947 0.00633829 0.00670583
H  0.00634238 0.00634327 3.00598366
2
MD Step 30
H  0.00655807 0.00655686 0.00694997
H  0.00656108 0.00656201 3.00617709
2
MD Step 31
H  0.00677667 0.00677542 0.00719497
H  0.00677979 0.00678074 3.00636966
2
MD Step 32
H  0.00699528 0.00699398 0.00744083
H  0.00699849 0.00699948 3.00656137
2
MD Step 33
H  0.00721388 0.00721254 0.00768756
H  0.00721719 0.00721821 3.00675221
2
MD Step 34
H  0.00743248 0.00743110 0.00793514
H  0.00743590 0.00743694 3.00694219
2
MD Step 35
H  0.00765108 0.00764966 0.00818359
H  0.00765460 0.00765568 3.00713132
2
MD Step 36
H  0.00786968 0.00786823 0.00843289
H  0.00787330 0.00787441 3.00731958
2
MD Step 37
H  0.00808829 0.00808679 0.00868306
H  0.00809200 0.00809314 3.00750698
2
MD Step 38
H  0.00830689 0.00830535 0.00893409
H  0.00831071 0.00831188 3.00769352
2
MD Step 39
H  0.00852549 0.00852391 0.00918598
H  0.00852941 0.00853061 3.00787919
2
MD Step 40
H  0.00874409 0.00874247 0.00943874
H  0.00874811 0.00874934 3.00806401
2
MD Step 41
H  0.00896270 0.00896104 0.00969235
H  0.00896682 0.00896808 3.00824796
2
MD Step 42
H  0.00918130 0.00917960 0.00994683
H  0.00918552 0.00918681 3.00843106
2
MD Step 43
H  0.00939990 0.00939816 0.01020217
H  0.00940422 0.00940554 3.00861329
2
MD Step 44
H  0.00961850 0.00961672 0.01045837
H  0.00962292 0.00962428 3.00879465
2
MD Step 45
H  0.00983711 0.00983528 0.01071543
H  0.00984163 0.00984301 3.00897516
2
MD Step 46
H  0.01005571 0.01005385 0.01097336
H  0.01006033 0.01006175 3.00915480
2
MD Step 47
H  0.01027431 0.01027241 0.01123214
H  0.01027903 0.01028048 3.00933359
2
MD Step 48
H  0.01049291 0.01049097 0.01149179
H  0.01049774 0.01049921 3.00951150
2
MD Step 49
H  0.01071152 0.01070953 0.01175231
H  0.01071644 0.01071795 3.00968856
2
MD Step 50
H  0.01093012 0.01092809 0.01201368
H  0.01093514 0.01093668 3.00986475
2
MD Step 51
H  0.01114872 0.01114665 0.01227592
H  0.01115384 0.01115541 3.01004008
2
MD Step 52
H  0.01136732 0.01136522 0.01253902
H  0.01137255 0.01137415 3.01021455
2
MD Step 53
H  0.01158593 0.01158378 0.01280298
H  0.01159125 0.01159288 3.01038816
2
MD Step 54
H  0.01180453 0.01180234 0.01306781
H  0.01180995 0.01181161 3.01056090
2
MD Step 55
H  0.01202313 0.01202090 0.01333350
H  0.01202866 0.01203035 3.01073278
