2
MD Step 0
Li  0.00000000 0.00000000 0.00000000
H  0.00000000 0.00000000 3.00000000
2
MD Step 1
Li  0.00091265 0.00091263 0.00132123
H  0.00239566 0.00239590 2.99957942
2
MD Step 2
Li  0.00182570 0.00182567 0.00346016
H  0.00478853 0.00478901 2.99352261
2
MD Step 3
Li  0.00273957 0.00273952 0.00641915
H  0.00717580 0.00717651 2.98181336
2
MD Step 4
Li  0.00365466 0.00365460 0.01020229
H  0.00955460 0.00955555 2.96442340
2
MD Step 5
Li  0.00457141 0.00457133 0.01481525
H  0.01192197 0.01192317 2.94131376
2
MD Step 6
Li  0.00549026 0.00549017 0.02026493
H  0.01427486 0.01427629 2.91243681
2
MD Step 7
Li  0.00641168 0.00641158 0.02655908
H  0.01661006 0.01661172 2.87773913
2
MD Step 8
Li  0.00733615 0.00733603 0.03370573
H  0.01892423 0.01892611 2.83716533
2
MD Step 9
Li  0.00826418 0.00826405 0.04171249
H  0.02121388 0.02121598 2.79066304
2
MD Step 10
Li  0.00919629 0.00919615 0.05058556
H  0.02347538 0.02347770 2.73818950
