3
MD Step 0
H  0.00000000 0.50000000 -0.50000000
H  0.00000000 0.50000000 0.50000000
O  0.00000000 0.00000000 0.00000000
3
MD Step 1
H  0.01094134 0.56264213 -0.54415690
H  0.01093800 0.56264732 0.56603384
O  0.00274342 -0.00376503 0.00274419
3
MD Step 2
H  0.02278707 0.68917313 -0.65651738
H  0.02286242 0.69488250 0.70774618
O  0.00536492 -0.01593397 0.00501499
